$DATA1 SOURCE='HSPICE' VERSION='C-2009.03 64-BIT'
.TITLE ' * adb_x4 ss/1.1v/125c 37.5p/0.4f'
 index            w1               w2               td_rise           
                  td_fall          slew_rise        slew_fall         
                  temper           alter#            
    1.0000         9.000e-08        3.600e-07        8.051e-11        
                   1.466e-10        3.187e-11        3.847e-11        
                   125.0000           1.0000         
    2.0000         9.000e-08        3.800e-07        8.109e-11        
                   1.463e-10        3.201e-11        3.856e-11        
                   125.0000           1.0000         
    3.0000         9.000e-08        4.000e-07        8.168e-11        
                   1.461e-10        3.220e-11        3.868e-11        
                   125.0000           1.0000         
    4.0000         9.000e-08        4.200e-07        8.227e-11        
                   1.460e-10        3.237e-11        3.882e-11        
                   125.0000           1.0000         
    5.0000         9.000e-08        4.400e-07        8.287e-11        
                   1.459e-10        3.250e-11        3.898e-11        
                   125.0000           1.0000         
    6.0000         9.000e-08        4.600e-07        8.347e-11        
                   1.458e-10        3.266e-11        3.917e-11        
                   125.0000           1.0000         
    7.0000         9.000e-08        4.800e-07        8.405e-11        
                   1.458e-10        3.279e-11        3.936e-11        
                   125.0000           1.0000         
    8.0000         9.000e-08        5.000e-07        8.463e-11        
                   1.458e-10        3.291e-11        3.957e-11        
                   125.0000           1.0000         
    9.0000         9.000e-08        5.200e-07        8.522e-11        
                   1.459e-10        3.300e-11        3.980e-11        
                   125.0000           1.0000         
   10.0000         9.500e-08        3.600e-07        7.830e-11        
                   1.468e-10        3.134e-11        3.848e-11        
                   125.0000           1.0000         
   11.0000         9.500e-08        3.800e-07        7.887e-11        
                   1.465e-10        3.149e-11        3.857e-11        
                   125.0000           1.0000         
   12.0000         9.500e-08        4.000e-07        7.942e-11        
                   1.463e-10        3.161e-11        3.869e-11        
                   125.0000           1.0000         
   13.0000         9.500e-08        4.200e-07        7.998e-11        
                   1.461e-10        3.171e-11        3.884e-11        
                   125.0000           1.0000         
   14.0000         9.500e-08        4.400e-07        8.054e-11        
                   1.460e-10        3.179e-11        3.900e-11        
                   125.0000           1.0000         
   15.0000         9.500e-08        4.600e-07        8.110e-11        
                   1.460e-10        3.192e-11        3.918e-11        
                   125.0000           1.0000         
   16.0000         9.500e-08        4.800e-07        8.166e-11        
                   1.460e-10        3.212e-11        3.937e-11        
                   125.0000           1.0000         
   17.0000         9.500e-08        5.000e-07        8.222e-11        
                   1.460e-10        3.228e-11        3.958e-11        
                   125.0000           1.0000         
   18.0000         9.500e-08        5.200e-07        8.279e-11        
                   1.460e-10        3.241e-11        3.981e-11        
                   125.0000           1.0000         
   19.0000         1.000e-07        3.600e-07        7.630e-11        
                   1.469e-10        3.060e-11        3.849e-11        
                   125.0000           1.0000         
   20.0000         1.000e-07        3.800e-07        7.684e-11        
                   1.466e-10        3.077e-11        3.858e-11        
                   125.0000           1.0000         
   21.0000         1.000e-07        4.000e-07        7.738e-11        
                   1.464e-10        3.097e-11        3.870e-11        
                   125.0000           1.0000         
   22.0000         1.000e-07        4.200e-07        7.793e-11        
                   1.463e-10        3.115e-11        3.885e-11        
                   125.0000           1.0000         
   23.0000         1.000e-07        4.400e-07        7.847e-11        
                   1.462e-10        3.132e-11        3.901e-11        
                   125.0000           1.0000         
   24.0000         1.000e-07        4.600e-07        7.902e-11        
                   1.461e-10        3.145e-11        3.919e-11        
                   125.0000           1.0000         
   25.0000         1.000e-07        4.800e-07        7.955e-11        
                   1.461e-10        3.157e-11        3.939e-11        
                   125.0000           1.0000         
   26.0000         1.000e-07        5.000e-07        8.008e-11        
                   1.461e-10        3.166e-11        3.960e-11        
                   125.0000           1.0000         
   27.0000         1.000e-07        5.200e-07        8.061e-11        
                   1.462e-10        3.173e-11        3.982e-11        
                   125.0000           1.0000         
   28.0000         1.050e-07        3.600e-07        7.450e-11        
                   1.471e-10        3.030e-11        3.849e-11        
                   125.0000           1.0000         
   29.0000         1.050e-07        3.800e-07        7.502e-11        
                   1.468e-10        3.039e-11        3.859e-11        
                   125.0000           1.0000         
   30.0000         1.050e-07        4.000e-07        7.554e-11        
                   1.466e-10        3.047e-11        3.871e-11        
                   125.0000           1.0000         
   31.0000         1.050e-07        4.200e-07        7.605e-11        
                   1.464e-10        3.052e-11        3.886e-11        
                   125.0000           1.0000         
   32.0000         1.050e-07        4.400e-07        7.657e-11        
                   1.463e-10        3.062e-11        3.902e-11        
                   125.0000           1.0000         
   33.0000         1.050e-07        4.600e-07        7.708e-11        
                   1.463e-10        3.080e-11        3.920e-11        
                   125.0000           1.0000         
   34.0000         1.050e-07        4.800e-07        7.761e-11        
                   1.463e-10        3.100e-11        3.940e-11        
                   125.0000           1.0000         
   35.0000         1.050e-07        5.000e-07        7.814e-11        
                   1.463e-10        3.117e-11        3.961e-11        
                   125.0000           1.0000         
   36.0000         1.050e-07        5.200e-07        7.865e-11        
                   1.463e-10        3.132e-11        3.983e-11        
                   125.0000           1.0000         
   37.0000         1.100e-07        3.600e-07        7.285e-11        
                   1.472e-10        2.979e-11        3.850e-11        
                   125.0000           1.0000         
   38.0000         1.100e-07        3.800e-07        7.336e-11        
                   1.469e-10        2.996e-11        3.860e-11        
                   125.0000           1.0000         
   39.0000         1.100e-07        4.000e-07        7.386e-11        
                   1.467e-10        3.010e-11        3.872e-11        
                   125.0000           1.0000         
   40.0000         1.100e-07        4.200e-07        7.436e-11        
                   1.466e-10        3.022e-11        3.886e-11        
                   125.0000           1.0000         
   41.0000         1.100e-07        4.400e-07        7.486e-11        
                   1.465e-10        3.032e-11        3.903e-11        
                   125.0000           1.0000         
   42.0000         1.100e-07        4.600e-07        7.536e-11        
                   1.464e-10        3.040e-11        3.921e-11        
                   125.0000           1.0000         
   43.0000         1.100e-07        4.800e-07        7.586e-11        
                   1.464e-10        3.045e-11        3.941e-11        
                   125.0000           1.0000         
   44.0000         1.100e-07        5.000e-07        7.635e-11        
                   1.464e-10        3.050e-11        3.961e-11        
                   125.0000           1.0000         
   45.0000         1.100e-07        5.200e-07        7.684e-11        
                   1.465e-10        3.067e-11        3.984e-11        
                   125.0000           1.0000         
   46.0000         1.150e-07        3.600e-07        7.132e-11        
                   1.474e-10        2.927e-11        3.850e-11        
                   125.0000           1.0000         
   47.0000         1.150e-07        3.800e-07        7.181e-11        
                   1.471e-10        2.934e-11        3.860e-11        
                   125.0000           1.0000         
   48.0000         1.150e-07        4.000e-07        7.230e-11        
                   1.469e-10        2.954e-11        3.872e-11        
                   125.0000           1.0000         
   49.0000         1.150e-07        4.200e-07        7.279e-11        
                   1.467e-10        2.973e-11        3.887e-11        
                   125.0000           1.0000         
   50.0000         1.150e-07        4.400e-07        7.329e-11        
                   1.466e-10        2.990e-11        3.904e-11        
                   125.0000           1.0000         
   51.0000         1.150e-07        4.600e-07        7.378e-11        
                   1.466e-10        3.005e-11        3.922e-11        
                   125.0000           1.0000         
   52.0000         1.150e-07        4.800e-07        7.427e-11        
                   1.466e-10        3.017e-11        3.941e-11        
                   125.0000           1.0000         
   53.0000         1.150e-07        5.000e-07        7.474e-11        
                   1.466e-10        3.026e-11        3.962e-11        
                   125.0000           1.0000         
   54.0000         1.150e-07        5.200e-07        7.521e-11        
                   1.466e-10        3.034e-11        3.985e-11        
                   125.0000           1.0000         
   55.0000         1.200e-07        3.600e-07        6.994e-11        
                   1.475e-10        2.906e-11        3.850e-11        
                   125.0000           1.0000         
   56.0000         1.200e-07        3.800e-07        7.041e-11        
                   1.472e-10        2.913e-11        3.860e-11        
                   125.0000           1.0000         
   57.0000         1.200e-07        4.000e-07        7.088e-11        
                   1.470e-10        2.918e-11        3.873e-11        
                   125.0000           1.0000         
   58.0000         1.200e-07        4.200e-07        7.135e-11        
                   1.469e-10        2.924e-11        3.888e-11        
                   125.0000           1.0000         
   59.0000         1.200e-07        4.400e-07        7.182e-11        
                   1.468e-10        2.932e-11        3.904e-11        
                   125.0000           1.0000         
   60.0000         1.200e-07        4.600e-07        7.229e-11        
                   1.467e-10        2.952e-11        3.922e-11        
                   125.0000           1.0000         
   61.0000         1.200e-07        4.800e-07        7.277e-11        
                   1.467e-10        2.970e-11        3.942e-11        
                   125.0000           1.0000         
   62.0000         1.200e-07        5.000e-07        7.325e-11        
                   1.467e-10        2.987e-11        3.963e-11        
                   125.0000           1.0000         
   63.0000         1.200e-07        5.200e-07        7.371e-11        
                   1.468e-10        3.000e-11        3.985e-11        
                   125.0000           1.0000         
   64.0000         1.250e-07        3.600e-07        6.865e-11        
                   1.476e-10        2.873e-11        3.850e-11        
                   125.0000           1.0000         
   65.0000         1.250e-07        3.800e-07        6.911e-11        
                   1.474e-10        2.886e-11        3.861e-11        
                   125.0000           1.0000         
   66.0000         1.250e-07        4.000e-07        6.957e-11        
                   1.472e-10        2.896e-11        3.873e-11        
                   125.0000           1.0000         
   67.0000         1.250e-07        4.200e-07        7.003e-11        
                   1.470e-10        2.905e-11        3.888e-11        
                   125.0000           1.0000         
   68.0000         1.250e-07        4.400e-07        7.048e-11        
                   1.469e-10        2.911e-11        3.905e-11        
                   125.0000           1.0000         
   69.0000         1.250e-07        4.600e-07        7.094e-11        
                   1.469e-10        2.915e-11        3.923e-11        
                   125.0000           1.0000         
   70.0000         1.250e-07        4.800e-07        7.140e-11        
                   1.468e-10        2.923e-11        3.943e-11        
                   125.0000           1.0000         
   71.0000         1.250e-07        5.000e-07        7.185e-11        
                   1.469e-10        2.932e-11        3.964e-11        
                   125.0000           1.0000         
   72.0000         1.250e-07        5.200e-07        7.230e-11        
                   1.469e-10        2.951e-11        3.986e-11        
                   125.0000           1.0000         
   73.0000         1.300e-07        3.600e-07        6.742e-11        
                   1.478e-10        2.827e-11        3.850e-11        
                   125.0000           1.0000         
   74.0000         1.300e-07        3.800e-07        6.788e-11        
                   1.475e-10        2.846e-11        3.861e-11        
                   125.0000           1.0000         
   75.0000         1.300e-07        4.000e-07        6.834e-11        
                   1.473e-10        2.862e-11        3.874e-11        
                   125.0000           1.0000         
   76.0000         1.300e-07        4.200e-07        6.879e-11        
                   1.472e-10        2.876e-11        3.889e-11        
                   125.0000           1.0000         
   77.0000         1.300e-07        4.400e-07        6.924e-11        
                   1.471e-10        2.887e-11        3.905e-11        
                   125.0000           1.0000         
   78.0000         1.300e-07        4.600e-07        6.968e-11        
                   1.470e-10        2.897e-11        3.924e-11        
                   125.0000           1.0000         
   79.0000         1.300e-07        4.800e-07        7.013e-11        
                   1.470e-10        2.904e-11        3.943e-11        
                   125.0000           1.0000         
   80.0000         1.300e-07        5.000e-07        7.057e-11        
                   1.470e-10        2.910e-11        3.964e-11        
                   125.0000           1.0000         
   81.0000         1.300e-07        5.200e-07        7.101e-11        
                   1.470e-10        2.915e-11        3.987e-11        
                   125.0000           1.0000         
